
OS:Version,
  {013ee5ce-541b-496b-b095-6107f6ede682}, !- Handle
  1.8.0;                                  !- Version Identifier

OS:SpaceType,
  {2010323c-99bd-47cb-9fcc-3fb8d6cbf7c0}, !- Handle
  Multifamily (2 to 4 units),             !- Name
  ,                                       !- Default Construction Set Name
  ,                                       !- Default Schedule Set Name
  {2d33f780-5a30-4472-9a1b-5684a7a8ee74}, !- Group Rendering Name
  ,                                       !- Design Specification Outdoor Air Object Name
  Multifamily (2 to 4 units),             !- Standards Building Type
  Multifamily (2 to 4 units);             !- Standards Space Type

OS:Rendering:Color,
  {2d33f780-5a30-4472-9a1b-5684a7a8ee74}, !- Handle
  Rendering Color 1,                      !- Name
  0,                                      !- Rendering Red Value
  0,                                      !- Rendering Green Value
  0;                                      !- Rendering Blue Value

OS:Building,
  {c6213110-74c9-4b5d-be5f-c0bc6c9e0d4d}, !- Handle
  Building 1,                             !- Name
  ,                                       !- Building Sector Type
  ,                                       !- North Axis {deg}
  ,                                       !- Nominal Floor to Floor Height {m}
  {2010323c-99bd-47cb-9fcc-3fb8d6cbf7c0}, !- Space Type Name
  ,                                       !- Default Construction Set Name
  ;                                       !- Default Schedule Set Name

OS:Space,
  {890c7726-964d-4daf-84e2-933a8e69d178}, !- Handle
  Bldg 142484 Floor 1,                    !- Name
  {2010323c-99bd-47cb-9fcc-3fb8d6cbf7c0}, !- Space Type Name
  ,                                       !- Default Construction Set Name
  ,                                       !- Default Schedule Set Name
  ,                                       !- Direction of Relative North {deg}
  ,                                       !- X Origin {m}
  ,                                       !- Y Origin {m}
  ,                                       !- Z Origin {m}
  ,                                       !- Building Story Name
  {e2c62ae9-eba9-4e01-90ec-3278cccf80c6}; !- Thermal Zone Name

OS:Surface,
  {cde720ab-65b8-4338-9a29-2be416fe6965}, !- Handle
  Surface 1,                              !- Name
  Floor,                                  !- Surface Type
  ,                                       !- Construction Name
  {890c7726-964d-4daf-84e2-933a8e69d178}, !- Space Name
  Ground,                                 !- Outside Boundary Condition
  ,                                       !- Outside Boundary Condition Object
  NoSun,                                  !- Sun Exposure
  NoWind,                                 !- Wind Exposure
  ,                                       !- View Factor to Ground
  ,                                       !- Number of Vertices
  874.122736623045, 940.560186969116, 0,  !- X,Y,Z Vertex 1 {m}
  874.232854561997, 932.084933719598, 0,  !- X,Y,Z Vertex 2 {m}
  871.034970431996, 931.985870479606, 0,  !- X,Y,Z Vertex 3 {m}
  871.112805826997, 929.473247239366, 0,  !- X,Y,Z Vertex 4 {m}
  861.363335274043, 929.285550449975, 0,  !- X,Y,Z Vertex 5 {m}
  861.255428693024, 932.768909969367, 0,  !- X,Y,Z Vertex 6 {m}
  860.341747519036, 932.740606189705, 0,  !- X,Y,Z Vertex 7 {m}
  860.109420712048, 940.240405799821, 0;  !- X,Y,Z Vertex 8 {m}

OS:Surface,
  {1d942c61-38c6-4158-9c2c-48047c87a875}, !- Handle
  Surface 2,                              !- Name
  Wall,                                   !- Surface Type
  ,                                       !- Construction Name
  {890c7726-964d-4daf-84e2-933a8e69d178}, !- Space Name
  Outdoors,                               !- Outside Boundary Condition
  ,                                       !- Outside Boundary Condition Object
  SunExposed,                             !- Sun Exposure
  WindExposed,                            !- Wind Exposure
  ,                                       !- View Factor to Ground
  ,                                       !- Number of Vertices
  874.232854561997, 932.084933719598, 1.524, !- X,Y,Z Vertex 1 {m}
  874.232854561997, 932.084933719598, 0,  !- X,Y,Z Vertex 2 {m}
  874.122736623045, 940.560186969116, 0,  !- X,Y,Z Vertex 3 {m}
  874.122736623045, 940.560186969116, 1.524; !- X,Y,Z Vertex 4 {m}

OS:Surface,
  {da37b6fb-f70e-4163-8913-c925f29ea144}, !- Handle
  Surface 3,                              !- Name
  Wall,                                   !- Surface Type
  ,                                       !- Construction Name
  {890c7726-964d-4daf-84e2-933a8e69d178}, !- Space Name
  Outdoors,                               !- Outside Boundary Condition
  ,                                       !- Outside Boundary Condition Object
  SunExposed,                             !- Sun Exposure
  WindExposed,                            !- Wind Exposure
  ,                                       !- View Factor to Ground
  ,                                       !- Number of Vertices
  871.034970431996, 931.985870479606, 1.524, !- X,Y,Z Vertex 1 {m}
  871.034970431996, 931.985870479606, 0,  !- X,Y,Z Vertex 2 {m}
  874.232854561997, 932.084933719598, 0,  !- X,Y,Z Vertex 3 {m}
  874.232854561997, 932.084933719598, 1.524; !- X,Y,Z Vertex 4 {m}

OS:Surface,
  {4bef8ffb-e57c-47ff-9ec9-5cb0b5cb9308}, !- Handle
  Surface 4,                              !- Name
  Wall,                                   !- Surface Type
  ,                                       !- Construction Name
  {890c7726-964d-4daf-84e2-933a8e69d178}, !- Space Name
  Outdoors,                               !- Outside Boundary Condition
  ,                                       !- Outside Boundary Condition Object
  SunExposed,                             !- Sun Exposure
  WindExposed,                            !- Wind Exposure
  ,                                       !- View Factor to Ground
  ,                                       !- Number of Vertices
  871.112805826997, 929.473247239366, 1.524, !- X,Y,Z Vertex 1 {m}
  871.112805826997, 929.473247239366, 0,  !- X,Y,Z Vertex 2 {m}
  871.034970431996, 931.985870479606, 0,  !- X,Y,Z Vertex 3 {m}
  871.034970431996, 931.985870479606, 1.524; !- X,Y,Z Vertex 4 {m}

OS:Surface,
  {025942ed-7c58-4e1f-897b-9876e7ddc949}, !- Handle
  Surface 5,                              !- Name
  Wall,                                   !- Surface Type
  ,                                       !- Construction Name
  {890c7726-964d-4daf-84e2-933a8e69d178}, !- Space Name
  Outdoors,                               !- Outside Boundary Condition
  ,                                       !- Outside Boundary Condition Object
  SunExposed,                             !- Sun Exposure
  WindExposed,                            !- Wind Exposure
  ,                                       !- View Factor to Ground
  ,                                       !- Number of Vertices
  861.363335274043, 929.285550449975, 1.524, !- X,Y,Z Vertex 1 {m}
  861.363335274043, 929.285550449975, 0,  !- X,Y,Z Vertex 2 {m}
  871.112805826997, 929.473247239366, 0,  !- X,Y,Z Vertex 3 {m}
  871.112805826997, 929.473247239366, 1.524; !- X,Y,Z Vertex 4 {m}

OS:Surface,
  {9ff72360-d777-44bd-8552-31f6000eb22f}, !- Handle
  Surface 6,                              !- Name
  Wall,                                   !- Surface Type
  ,                                       !- Construction Name
  {890c7726-964d-4daf-84e2-933a8e69d178}, !- Space Name
  Outdoors,                               !- Outside Boundary Condition
  ,                                       !- Outside Boundary Condition Object
  SunExposed,                             !- Sun Exposure
  WindExposed,                            !- Wind Exposure
  ,                                       !- View Factor to Ground
  ,                                       !- Number of Vertices
  861.255428693024, 932.768909969367, 1.524, !- X,Y,Z Vertex 1 {m}
  861.255428693024, 932.768909969367, 0,  !- X,Y,Z Vertex 2 {m}
  861.363335274043, 929.285550449975, 0,  !- X,Y,Z Vertex 3 {m}
  861.363335274043, 929.285550449975, 1.524; !- X,Y,Z Vertex 4 {m}

OS:Surface,
  {332dfd2e-8538-4e4b-aac6-9081d928f7ee}, !- Handle
  Surface 7,                              !- Name
  Wall,                                   !- Surface Type
  ,                                       !- Construction Name
  {890c7726-964d-4daf-84e2-933a8e69d178}, !- Space Name
  Outdoors,                               !- Outside Boundary Condition
  ,                                       !- Outside Boundary Condition Object
  SunExposed,                             !- Sun Exposure
  WindExposed,                            !- Wind Exposure
  ,                                       !- View Factor to Ground
  ,                                       !- Number of Vertices
  860.341747519036, 932.740606189705, 1.524, !- X,Y,Z Vertex 1 {m}
  860.341747519036, 932.740606189705, 0,  !- X,Y,Z Vertex 2 {m}
  861.255428693024, 932.768909969367, 0,  !- X,Y,Z Vertex 3 {m}
  861.255428693024, 932.768909969367, 1.524; !- X,Y,Z Vertex 4 {m}

OS:Surface,
  {64f2ca7d-0283-4838-8007-cef8398fad8a}, !- Handle
  Surface 8,                              !- Name
  Wall,                                   !- Surface Type
  ,                                       !- Construction Name
  {890c7726-964d-4daf-84e2-933a8e69d178}, !- Space Name
  Outdoors,                               !- Outside Boundary Condition
  ,                                       !- Outside Boundary Condition Object
  SunExposed,                             !- Sun Exposure
  WindExposed,                            !- Wind Exposure
  ,                                       !- View Factor to Ground
  ,                                       !- Number of Vertices
  860.109420712048, 940.240405799821, 1.524, !- X,Y,Z Vertex 1 {m}
  860.109420712048, 940.240405799821, 0,  !- X,Y,Z Vertex 2 {m}
  860.341747519036, 932.740606189705, 0,  !- X,Y,Z Vertex 3 {m}
  860.341747519036, 932.740606189705, 1.524; !- X,Y,Z Vertex 4 {m}

OS:Surface,
  {ad22a312-eec9-440c-bc68-198fb103de0b}, !- Handle
  Surface 9,                              !- Name
  Wall,                                   !- Surface Type
  ,                                       !- Construction Name
  {890c7726-964d-4daf-84e2-933a8e69d178}, !- Space Name
  Outdoors,                               !- Outside Boundary Condition
  ,                                       !- Outside Boundary Condition Object
  SunExposed,                             !- Sun Exposure
  WindExposed,                            !- Wind Exposure
  ,                                       !- View Factor to Ground
  ,                                       !- Number of Vertices
  874.122736623045, 940.560186969116, 1.524, !- X,Y,Z Vertex 1 {m}
  874.122736623045, 940.560186969116, 0,  !- X,Y,Z Vertex 2 {m}
  860.109420712048, 940.240405799821, 0,  !- X,Y,Z Vertex 3 {m}
  860.109420712048, 940.240405799821, 1.524; !- X,Y,Z Vertex 4 {m}

OS:Surface,
  {9d7e78f3-c3e0-4c85-802e-8e65b2ab9bbf}, !- Handle
  Surface 10,                             !- Name
  RoofCeiling,                            !- Surface Type
  ,                                       !- Construction Name
  {890c7726-964d-4daf-84e2-933a8e69d178}, !- Space Name
  Adiabatic,                              !- Outside Boundary Condition
  ,                                       !- Outside Boundary Condition Object
  NoSun,                                  !- Sun Exposure
  NoWind,                                 !- Wind Exposure
  ,                                       !- View Factor to Ground
  ,                                       !- Number of Vertices
  860.109420712048, 940.240405799821, 1.524, !- X,Y,Z Vertex 1 {m}
  860.341747519036, 932.740606189705, 1.524, !- X,Y,Z Vertex 2 {m}
  861.255428693024, 932.768909969367, 1.524, !- X,Y,Z Vertex 3 {m}
  861.363335274043, 929.285550449975, 1.524, !- X,Y,Z Vertex 4 {m}
  871.112805826997, 929.473247239366, 1.524, !- X,Y,Z Vertex 5 {m}
  871.034970431996, 931.985870479606, 1.524, !- X,Y,Z Vertex 6 {m}
  874.232854561997, 932.084933719598, 1.524, !- X,Y,Z Vertex 7 {m}
  874.122736623045, 940.560186969116, 1.524; !- X,Y,Z Vertex 8 {m}

OS:ThermalZone,
  {e2c62ae9-eba9-4e01-90ec-3278cccf80c6}, !- Handle
  Bldg 142484 Floor 1 ThermalZone,        !- Name
  ,                                       !- Multiplier
  ,                                       !- Ceiling Height {m}
  ,                                       !- Volume {m3}
  ,                                       !- Floor Area {m2}
  ,                                       !- Zone Inside Convection Algorithm
  ,                                       !- Zone Outside Convection Algorithm
  ,                                       !- Zone Conditioning Equipment List Name
  {b8fa9cd8-2ccb-45b3-9ebe-c508131fd9c3}, !- Zone Air Inlet Port List
  {9435696a-a139-4cdc-a901-2eda6f4c1fbb}, !- Zone Air Exhaust Port List
  {0040a304-5d3f-4f02-9cac-98d8786436bd}, !- Zone Air Node Name
  ,                                       !- Zone Return Air Node Name
  ,                                       !- Primary Daylighting Control Name
  ,                                       !- Fraction of Zone Controlled by Primary Daylighting Control
  ,                                       !- Secondary Daylighting Control Name
  ,                                       !- Fraction of Zone Controlled by Secondary Daylighting Control
  ,                                       !- Illuminance Map Name
  ,                                       !- Group Rendering Name
  ,                                       !- Thermostat Name
  No;                                     !- Use Ideal Air Loads

OS:Node,
  {a4ad1ebe-9028-49cf-adf8-d996828d6fc8}, !- Handle
  Node 1,                                 !- Name
  {0040a304-5d3f-4f02-9cac-98d8786436bd}, !- Inlet Port
  ;                                       !- Outlet Port

OS:Connection,
  {0040a304-5d3f-4f02-9cac-98d8786436bd}, !- Handle
  {e3bbcb1c-5bf1-4cf0-bbc0-8c35bad2c430}, !- Name
  {e2c62ae9-eba9-4e01-90ec-3278cccf80c6}, !- Source Object
  11,                                     !- Outlet Port
  {a4ad1ebe-9028-49cf-adf8-d996828d6fc8}, !- Target Object
  2;                                      !- Inlet Port

OS:PortList,
  {b8fa9cd8-2ccb-45b3-9ebe-c508131fd9c3}, !- Handle
  Port List 1,                            !- Name
  {e2c62ae9-eba9-4e01-90ec-3278cccf80c6}; !- HVAC Component

OS:PortList,
  {9435696a-a139-4cdc-a901-2eda6f4c1fbb}, !- Handle
  Port List 2,                            !- Name
  {e2c62ae9-eba9-4e01-90ec-3278cccf80c6}; !- HVAC Component

OS:Sizing:Zone,
  {db2da712-b9ec-4bf1-891f-4c2d456f32c5}, !- Handle
  {e2c62ae9-eba9-4e01-90ec-3278cccf80c6}, !- Zone or ZoneList Name
  14,                                     !- Zone Cooling Design Supply Air Temperature {C}
  40,                                     !- Zone Heating Design Supply Air Temperature {C}
  0.0085,                                 !- Zone Cooling Design Supply Air Humidity Ratio {kg-H2O/kg-air}
  0.008,                                  !- Zone Heating Design Supply Air Humidity Ratio {kg-H2O/kg-air}
  ,                                       !- Zone Heating Sizing Factor
  ,                                       !- Zone Cooling Sizing Factor
  DesignDay,                              !- Cooling Design Air Flow Method
  ,                                       !- Cooling Design Air Flow Rate {m3/s}
  ,                                       !- Cooling Minimum Air Flow per Zone Floor Area {m3/s-m2}
  ,                                       !- Cooling Minimum Air Flow {m3/s}
  ,                                       !- Cooling Minimum Air Flow Fraction
  DesignDay,                              !- Heating Design Air Flow Method
  ,                                       !- Heating Design Air Flow Rate {m3/s}
  ,                                       !- Heating Maximum Air Flow per Zone Floor Area {m3/s-m2}
  ,                                       !- Heating Maximum Air Flow {m3/s}
  ,                                       !- Heating Maximum Air Flow Fraction
  ,                                       !- Design Zone Air Distribution Effectiveness in Cooling Mode
  ;                                       !- Design Zone Air Distribution Effectiveness in Heating Mode

OS:ZoneHVAC:EquipmentList,
  {7ff57359-3086-4bbc-8ef7-18ddcec809ad}, !- Handle
  Zone HVAC Equipment List 1,             !- Name
  {e2c62ae9-eba9-4e01-90ec-3278cccf80c6}; !- Thermal Zone

OS:Space,
  {66cbc4bf-02bd-433c-992b-f736c62b4d91}, !- Handle
  Bldg 142484 Floor 2,                    !- Name
  {2010323c-99bd-47cb-9fcc-3fb8d6cbf7c0}, !- Space Type Name
  ,                                       !- Default Construction Set Name
  ,                                       !- Default Schedule Set Name
  ,                                       !- Direction of Relative North {deg}
  ,                                       !- X Origin {m}
  ,                                       !- Y Origin {m}
  1.524,                                  !- Z Origin {m}
  ,                                       !- Building Story Name
  {653ae334-4b1c-46e0-8804-723d51f4ed1d}; !- Thermal Zone Name

OS:Surface,
  {6f99880c-84b8-47a1-be83-6daa1a37f40e}, !- Handle
  Surface 11,                             !- Name
  Floor,                                  !- Surface Type
  ,                                       !- Construction Name
  {66cbc4bf-02bd-433c-992b-f736c62b4d91}, !- Space Name
  Adiabatic,                              !- Outside Boundary Condition
  ,                                       !- Outside Boundary Condition Object
  NoSun,                                  !- Sun Exposure
  NoWind,                                 !- Wind Exposure
  ,                                       !- View Factor to Ground
  ,                                       !- Number of Vertices
  874.122736623045, 940.560186969116, 0,  !- X,Y,Z Vertex 1 {m}
  874.232854561997, 932.084933719598, 0,  !- X,Y,Z Vertex 2 {m}
  871.034970431996, 931.985870479606, 0,  !- X,Y,Z Vertex 3 {m}
  871.112805826997, 929.473247239366, 0,  !- X,Y,Z Vertex 4 {m}
  861.363335274043, 929.285550449975, 0,  !- X,Y,Z Vertex 5 {m}
  861.255428693024, 932.768909969367, 0,  !- X,Y,Z Vertex 6 {m}
  860.341747519036, 932.740606189705, 0,  !- X,Y,Z Vertex 7 {m}
  860.109420712048, 940.240405799821, 0;  !- X,Y,Z Vertex 8 {m}

OS:Surface,
  {01648a09-ffec-4849-8a6b-b540d1128046}, !- Handle
  Surface 12,                             !- Name
  Wall,                                   !- Surface Type
  ,                                       !- Construction Name
  {66cbc4bf-02bd-433c-992b-f736c62b4d91}, !- Space Name
  Outdoors,                               !- Outside Boundary Condition
  ,                                       !- Outside Boundary Condition Object
  SunExposed,                             !- Sun Exposure
  WindExposed,                            !- Wind Exposure
  ,                                       !- View Factor to Ground
  ,                                       !- Number of Vertices
  874.232854561997, 932.084933719598, 1.524, !- X,Y,Z Vertex 1 {m}
  874.232854561997, 932.084933719598, 0,  !- X,Y,Z Vertex 2 {m}
  874.122736623045, 940.560186969116, 0,  !- X,Y,Z Vertex 3 {m}
  874.122736623045, 940.560186969116, 1.524; !- X,Y,Z Vertex 4 {m}

OS:Surface,
  {f765eb9a-9113-4bb5-a1af-66aefcf6bfbb}, !- Handle
  Surface 13,                             !- Name
  Wall,                                   !- Surface Type
  ,                                       !- Construction Name
  {66cbc4bf-02bd-433c-992b-f736c62b4d91}, !- Space Name
  Outdoors,                               !- Outside Boundary Condition
  ,                                       !- Outside Boundary Condition Object
  SunExposed,                             !- Sun Exposure
  WindExposed,                            !- Wind Exposure
  ,                                       !- View Factor to Ground
  ,                                       !- Number of Vertices
  871.034970431996, 931.985870479606, 1.524, !- X,Y,Z Vertex 1 {m}
  871.034970431996, 931.985870479606, 0,  !- X,Y,Z Vertex 2 {m}
  874.232854561997, 932.084933719598, 0,  !- X,Y,Z Vertex 3 {m}
  874.232854561997, 932.084933719598, 1.524; !- X,Y,Z Vertex 4 {m}

OS:Surface,
  {033d7f95-2d28-4be9-bdfe-da28d6cdb307}, !- Handle
  Surface 14,                             !- Name
  Wall,                                   !- Surface Type
  ,                                       !- Construction Name
  {66cbc4bf-02bd-433c-992b-f736c62b4d91}, !- Space Name
  Outdoors,                               !- Outside Boundary Condition
  ,                                       !- Outside Boundary Condition Object
  SunExposed,                             !- Sun Exposure
  WindExposed,                            !- Wind Exposure
  ,                                       !- View Factor to Ground
  ,                                       !- Number of Vertices
  871.112805826997, 929.473247239366, 1.524, !- X,Y,Z Vertex 1 {m}
  871.112805826997, 929.473247239366, 0,  !- X,Y,Z Vertex 2 {m}
  871.034970431996, 931.985870479606, 0,  !- X,Y,Z Vertex 3 {m}
  871.034970431996, 931.985870479606, 1.524; !- X,Y,Z Vertex 4 {m}

OS:Surface,
  {69445e79-7c21-4061-bcac-69bfac2cb8a9}, !- Handle
  Surface 15,                             !- Name
  RoofCeiling,                            !- Surface Type
  ,                                       !- Construction Name
  {66cbc4bf-02bd-433c-992b-f736c62b4d91}, !- Space Name
  Adiabatic,                              !- Outside Boundary Condition
  ,                                       !- Outside Boundary Condition Object
  NoSun,                                  !- Sun Exposure
  NoWind,                                 !- Wind Exposure
  ,                                       !- View Factor to Ground
  ,                                       !- Number of Vertices
  860.109420712048, 940.240405799821, 1.524, !- X,Y,Z Vertex 1 {m}
  860.341747519036, 932.740606189705, 1.524, !- X,Y,Z Vertex 2 {m}
  861.255428693024, 932.768909969367, 1.524, !- X,Y,Z Vertex 3 {m}
  861.363335274043, 929.285550449975, 1.524, !- X,Y,Z Vertex 4 {m}
  871.112805826997, 929.473247239366, 1.524, !- X,Y,Z Vertex 5 {m}
  871.034970431996, 931.985870479606, 1.524, !- X,Y,Z Vertex 6 {m}
  874.232854561997, 932.084933719598, 1.524, !- X,Y,Z Vertex 7 {m}
  874.122736623045, 940.560186969116, 1.524; !- X,Y,Z Vertex 8 {m}

OS:Surface,
  {8934ce25-8994-4e1b-abb9-10f742be4bae}, !- Handle
  Surface 16,                             !- Name
  Wall,                                   !- Surface Type
  ,                                       !- Construction Name
  {66cbc4bf-02bd-433c-992b-f736c62b4d91}, !- Space Name
  Outdoors,                               !- Outside Boundary Condition
  ,                                       !- Outside Boundary Condition Object
  SunExposed,                             !- Sun Exposure
  WindExposed,                            !- Wind Exposure
  ,                                       !- View Factor to Ground
  ,                                       !- Number of Vertices
  861.363335274043, 929.285550449975, 1.524, !- X,Y,Z Vertex 1 {m}
  861.363335274043, 929.285550449975, 0,  !- X,Y,Z Vertex 2 {m}
  871.112805826997, 929.473247239366, 0,  !- X,Y,Z Vertex 3 {m}
  871.112805826997, 929.473247239366, 1.524; !- X,Y,Z Vertex 4 {m}

OS:Surface,
  {e9b85965-94c4-414b-9fd4-3189a15a3866}, !- Handle
  Surface 17,                             !- Name
  Wall,                                   !- Surface Type
  ,                                       !- Construction Name
  {66cbc4bf-02bd-433c-992b-f736c62b4d91}, !- Space Name
  Outdoors,                               !- Outside Boundary Condition
  ,                                       !- Outside Boundary Condition Object
  SunExposed,                             !- Sun Exposure
  WindExposed,                            !- Wind Exposure
  ,                                       !- View Factor to Ground
  ,                                       !- Number of Vertices
  861.255428693024, 932.768909969367, 1.524, !- X,Y,Z Vertex 1 {m}
  861.255428693024, 932.768909969367, 0,  !- X,Y,Z Vertex 2 {m}
  861.363335274043, 929.285550449975, 0,  !- X,Y,Z Vertex 3 {m}
  861.363335274043, 929.285550449975, 1.524; !- X,Y,Z Vertex 4 {m}

OS:Surface,
  {99336c68-fa6d-4f06-9ec4-e007f681c107}, !- Handle
  Surface 18,                             !- Name
  Wall,                                   !- Surface Type
  ,                                       !- Construction Name
  {66cbc4bf-02bd-433c-992b-f736c62b4d91}, !- Space Name
  Outdoors,                               !- Outside Boundary Condition
  ,                                       !- Outside Boundary Condition Object
  SunExposed,                             !- Sun Exposure
  WindExposed,                            !- Wind Exposure
  ,                                       !- View Factor to Ground
  ,                                       !- Number of Vertices
  860.341747519036, 932.740606189705, 1.524, !- X,Y,Z Vertex 1 {m}
  860.341747519036, 932.740606189705, 0,  !- X,Y,Z Vertex 2 {m}
  861.255428693024, 932.768909969367, 0,  !- X,Y,Z Vertex 3 {m}
  861.255428693024, 932.768909969367, 1.524; !- X,Y,Z Vertex 4 {m}

OS:Surface,
  {040e4643-cb99-41f4-8c0b-caf14619d6a9}, !- Handle
  Surface 19,                             !- Name
  Wall,                                   !- Surface Type
  ,                                       !- Construction Name
  {66cbc4bf-02bd-433c-992b-f736c62b4d91}, !- Space Name
  Outdoors,                               !- Outside Boundary Condition
  ,                                       !- Outside Boundary Condition Object
  SunExposed,                             !- Sun Exposure
  WindExposed,                            !- Wind Exposure
  ,                                       !- View Factor to Ground
  ,                                       !- Number of Vertices
  860.109420712048, 940.240405799821, 1.524, !- X,Y,Z Vertex 1 {m}
  860.109420712048, 940.240405799821, 0,  !- X,Y,Z Vertex 2 {m}
  860.341747519036, 932.740606189705, 0,  !- X,Y,Z Vertex 3 {m}
  860.341747519036, 932.740606189705, 1.524; !- X,Y,Z Vertex 4 {m}

OS:Surface,
  {b2cc99af-aa73-4db6-b324-5d1248e3c7ab}, !- Handle
  Surface 20,                             !- Name
  Wall,                                   !- Surface Type
  ,                                       !- Construction Name
  {66cbc4bf-02bd-433c-992b-f736c62b4d91}, !- Space Name
  Outdoors,                               !- Outside Boundary Condition
  ,                                       !- Outside Boundary Condition Object
  SunExposed,                             !- Sun Exposure
  WindExposed,                            !- Wind Exposure
  ,                                       !- View Factor to Ground
  ,                                       !- Number of Vertices
  874.122736623045, 940.560186969116, 1.524, !- X,Y,Z Vertex 1 {m}
  874.122736623045, 940.560186969116, 0,  !- X,Y,Z Vertex 2 {m}
  860.109420712048, 940.240405799821, 0,  !- X,Y,Z Vertex 3 {m}
  860.109420712048, 940.240405799821, 1.524; !- X,Y,Z Vertex 4 {m}

OS:ThermalZone,
  {653ae334-4b1c-46e0-8804-723d51f4ed1d}, !- Handle
  Bldg 142484 Floor 2 ThermalZone,        !- Name
  ,                                       !- Multiplier
  ,                                       !- Ceiling Height {m}
  ,                                       !- Volume {m3}
  ,                                       !- Floor Area {m2}
  ,                                       !- Zone Inside Convection Algorithm
  ,                                       !- Zone Outside Convection Algorithm
  ,                                       !- Zone Conditioning Equipment List Name
  {ccdfcaea-0f16-4a77-a75f-192039a264db}, !- Zone Air Inlet Port List
  {da66eecb-4d61-4f3d-a909-89006cc1be34}, !- Zone Air Exhaust Port List
  {ab6ce43c-d6a6-404a-b0cb-77c924a2ad8d}, !- Zone Air Node Name
  ,                                       !- Zone Return Air Node Name
  ,                                       !- Primary Daylighting Control Name
  ,                                       !- Fraction of Zone Controlled by Primary Daylighting Control
  ,                                       !- Secondary Daylighting Control Name
  ,                                       !- Fraction of Zone Controlled by Secondary Daylighting Control
  ,                                       !- Illuminance Map Name
  ,                                       !- Group Rendering Name
  ,                                       !- Thermostat Name
  No;                                     !- Use Ideal Air Loads

OS:Node,
  {aa02e92f-1159-489c-9150-e3d377d13112}, !- Handle
  Node 2,                                 !- Name
  {ab6ce43c-d6a6-404a-b0cb-77c924a2ad8d}, !- Inlet Port
  ;                                       !- Outlet Port

OS:Connection,
  {ab6ce43c-d6a6-404a-b0cb-77c924a2ad8d}, !- Handle
  {a71ab533-b60c-4af4-9e65-c04450835ec6}, !- Name
  {653ae334-4b1c-46e0-8804-723d51f4ed1d}, !- Source Object
  11,                                     !- Outlet Port
  {aa02e92f-1159-489c-9150-e3d377d13112}, !- Target Object
  2;                                      !- Inlet Port

OS:PortList,
  {ccdfcaea-0f16-4a77-a75f-192039a264db}, !- Handle
  Port List 3,                            !- Name
  {653ae334-4b1c-46e0-8804-723d51f4ed1d}; !- HVAC Component

OS:PortList,
  {da66eecb-4d61-4f3d-a909-89006cc1be34}, !- Handle
  Port List 4,                            !- Name
  {653ae334-4b1c-46e0-8804-723d51f4ed1d}; !- HVAC Component

OS:Sizing:Zone,
  {5f29fd56-d8e8-46be-b664-4e9c1fc9eaa7}, !- Handle
  {653ae334-4b1c-46e0-8804-723d51f4ed1d}, !- Zone or ZoneList Name