
OS:Version,
  {f426ee41-f14e-45eb-9e37-507c07fbd936}, !- Handle
  1.8.0;                                  !- Version Identifier

OS:Space,
  {01b788bb-92d1-4e8b-9cab-5cc0b643a3ef}, !- Handle
  Bldg 142484 Floor 1,                    !- Name
  ,                                       !- Space Type Name
  ,                                       !- Default Construction Set Name
  ,                                       !- Default Schedule Set Name
  ,                                       !- Direction of Relative North {deg}
  ,                                       !- X Origin {m}
  ,                                       !- Y Origin {m}
  ,                                       !- Z Origin {m}
  ,                                       !- Building Story Name
  {93fd8513-5f1c-409a-b704-ff6d7b203f8f}; !- Thermal Zone Name

OS:Surface,
  {895496f7-0289-4f8a-b04c-4cedae956163}, !- Handle
  Surface 1,                              !- Name
  Floor,                                  !- Surface Type
  ,                                       !- Construction Name
  {01b788bb-92d1-4e8b-9cab-5cc0b643a3ef}, !- Space Name
  Ground,                                 !- Outside Boundary Condition
  ,                                       !- Outside Boundary Condition Object
  NoSun,                                  !- Sun Exposure
  NoWind,                                 !- Wind Exposure
  ,                                       !- View Factor to Ground
  ,                                       !- Number of Vertices
  874.122736623045, 940.560186969116, 0,  !- X,Y,Z Vertex 1 {m}
  874.232854561997, 932.084933719598, 0,  !- X,Y,Z Vertex 2 {m}
  871.034970431996, 931.985870479606, 0,  !- X,Y,Z Vertex 3 {m}
  871.112805826997, 929.473247239366, 0,  !- X,Y,Z Vertex 4 {m}
  861.363335274043, 929.285550449975, 0,  !- X,Y,Z Vertex 5 {m}
  861.255428693024, 932.768909969367, 0,  !- X,Y,Z Vertex 6 {m}
  860.341747519036, 932.740606189705, 0,  !- X,Y,Z Vertex 7 {m}
  860.109420712048, 940.240405799821, 0;  !- X,Y,Z Vertex 8 {m}

OS:Surface,
  {957012fd-f995-4585-b915-e4f5b9947362}, !- Handle
  Surface 2,                              !- Name
  Wall,                                   !- Surface Type
  ,                                       !- Construction Name
  {01b788bb-92d1-4e8b-9cab-5cc0b643a3ef}, !- Space Name
  Outdoors,                               !- Outside Boundary Condition
  ,                                       !- Outside Boundary Condition Object
  SunExposed,                             !- Sun Exposure
  WindExposed,                            !- Wind Exposure
  ,                                       !- View Factor to Ground
  ,                                       !- Number of Vertices
  874.232854561997, 932.084933719598, 1.524, !- X,Y,Z Vertex 1 {m}
  874.232854561997, 932.084933719598, 0,  !- X,Y,Z Vertex 2 {m}
  874.122736623045, 940.560186969116, 0,  !- X,Y,Z Vertex 3 {m}
  874.122736623045, 940.560186969116, 1.524; !- X,Y,Z Vertex 4 {m}

OS:Surface,
  {8a056289-8fc2-4e38-a20f-dec5577cdbe6}, !- Handle
  Surface 3,                              !- Name
  Wall,                                   !- Surface Type
  ,                                       !- Construction Name
  {01b788bb-92d1-4e8b-9cab-5cc0b643a3ef}, !- Space Name
  Outdoors,                               !- Outside Boundary Condition
  ,                                       !- Outside Boundary Condition Object
  SunExposed,                             !- Sun Exposure
  WindExposed,                            !- Wind Exposure
  ,                                       !- View Factor to Ground
  ,                                       !- Number of Vertices
  871.034970431996, 931.985870479606, 1.524, !- X,Y,Z Vertex 1 {m}
  871.034970431996, 931.985870479606, 0,  !- X,Y,Z Vertex 2 {m}
  874.232854561997, 932.084933719598, 0,  !- X,Y,Z Vertex 3 {m}
  874.232854561997, 932.084933719598, 1.524; !- X,Y,Z Vertex 4 {m}

OS:Surface,
  {4c81d3cc-f37b-47e5-839e-3661113a8681}, !- Handle
  Surface 4,                              !- Name
  Wall,                                   !- Surface Type
  ,                                       !- Construction Name
  {01b788bb-92d1-4e8b-9cab-5cc0b643a3ef}, !- Space Name
  Outdoors,                               !- Outside Boundary Condition
  ,                                       !- Outside Boundary Condition Object
  SunExposed,                             !- Sun Exposure
  WindExposed,                            !- Wind Exposure
  ,                                       !- View Factor to Ground
  ,                                       !- Number of Vertices
  871.112805826997, 929.473247239366, 1.524, !- X,Y,Z Vertex 1 {m}
  871.112805826997, 929.473247239366, 0,  !- X,Y,Z Vertex 2 {m}
  871.034970431996, 931.985870479606, 0,  !- X,Y,Z Vertex 3 {m}
  871.034970431996, 931.985870479606, 1.524; !- X,Y,Z Vertex 4 {m}

OS:Surface,
  {9e68d0ee-2066-4015-ada6-37bd45911e36}, !- Handle
  Surface 5,                              !- Name
  Wall,                                   !- Surface Type
  ,                                       !- Construction Name
  {01b788bb-92d1-4e8b-9cab-5cc0b643a3ef}, !- Space Name
  Outdoors,                               !- Outside Boundary Condition
  ,                                       !- Outside Boundary Condition Object
  SunExposed,                             !- Sun Exposure
  WindExposed,                            !- Wind Exposure
  ,                                       !- View Factor to Ground
  ,                                       !- Number of Vertices
  861.363335274043, 929.285550449975, 1.524, !- X,Y,Z Vertex 1 {m}
  861.363335274043, 929.285550449975, 0,  !- X,Y,Z Vertex 2 {m}
  871.112805826997, 929.473247239366, 0,  !- X,Y,Z Vertex 3 {m}
  871.112805826997, 929.473247239366, 1.524; !- X,Y,Z Vertex 4 {m}

OS:Surface,
  {bbe8db4c-2f2b-4f7e-a52d-030f0b2d0aee}, !- Handle
  Surface 6,                              !- Name
  Wall,                                   !- Surface Type
  ,                                       !- Construction Name
  {01b788bb-92d1-4e8b-9cab-5cc0b643a3ef}, !- Space Name
  Outdoors,                               !- Outside Boundary Condition
  ,                                       !- Outside Boundary Condition Object
  SunExposed,                             !- Sun Exposure
  WindExposed,                            !- Wind Exposure
  ,                                       !- View Factor to Ground
  ,                                       !- Number of Vertices
  861.255428693024, 932.768909969367, 1.524, !- X,Y,Z Vertex 1 {m}
  861.255428693024, 932.768909969367, 0,  !- X,Y,Z Vertex 2 {m}
  861.363335274043, 929.285550449975, 0,  !- X,Y,Z Vertex 3 {m}
  861.363335274043, 929.285550449975, 1.524; !- X,Y,Z Vertex 4 {m}

OS:Surface,
  {1087b371-f4f5-4763-b968-153e592a51a3}, !- Handle
  Surface 7,                              !- Name
  Wall,                                   !- Surface Type
  ,                                       !- Construction Name
  {01b788bb-92d1-4e8b-9cab-5cc0b643a3ef}, !- Space Name
  Outdoors,                               !- Outside Boundary Condition
  ,                                       !- Outside Boundary Condition Object
  SunExposed,                             !- Sun Exposure
  WindExposed,                            !- Wind Exposure
  ,                                       !- View Factor to Ground
  ,                                       !- Number of Vertices
  860.341747519036, 932.740606189705, 1.524, !- X,Y,Z Vertex 1 {m}
  860.341747519036, 932.740606189705, 0,  !- X,Y,Z Vertex 2 {m}
  861.255428693024, 932.768909969367, 0,  !- X,Y,Z Vertex 3 {m}
  861.255428693024, 932.768909969367, 1.524; !- X,Y,Z Vertex 4 {m}

OS:Surface,
  {6e658808-b5a0-4ee2-8654-5162f7b374a5}, !- Handle
  Surface 8,                              !- Name
  Wall,                                   !- Surface Type
  ,                                       !- Construction Name
  {01b788bb-92d1-4e8b-9cab-5cc0b643a3ef}, !- Space Name
  Outdoors,                               !- Outside Boundary Condition
  ,                                       !- Outside Boundary Condition Object
  SunExposed,                             !- Sun Exposure
  WindExposed,                            !- Wind Exposure
  ,                                       !- View Factor to Ground
  ,                                       !- Number of Vertices
  860.109420712048, 940.240405799821, 1.524, !- X,Y,Z Vertex 1 {m}
  860.109420712048, 940.240405799821, 0,  !- X,Y,Z Vertex 2 {m}
  860.341747519036, 932.740606189705, 0,  !- X,Y,Z Vertex 3 {m}
  860.341747519036, 932.740606189705, 1.524; !- X,Y,Z Vertex 4 {m}

OS:Surface,
  {3a8ffc56-cc95-4d83-bd90-890051441b24}, !- Handle
  Surface 9,                              !- Name
  Wall,                                   !- Surface Type
  ,                                       !- Construction Name
  {01b788bb-92d1-4e8b-9cab-5cc0b643a3ef}, !- Space Name
  Outdoors,                               !- Outside Boundary Condition
  ,                                       !- Outside Boundary Condition Object
  SunExposed,                             !- Sun Exposure
  WindExposed,                            !- Wind Exposure
  ,                                       !- View Factor to Ground
  ,                                       !- Number of Vertices
  874.122736623045, 940.560186969116, 1.524, !- X,Y,Z Vertex 1 {m}
  874.122736623045, 940.560186969116, 0,  !- X,Y,Z Vertex 2 {m}
  860.109420712048, 940.240405799821, 0,  !- X,Y,Z Vertex 3 {m}
  860.109420712048, 940.240405799821, 1.524; !- X,Y,Z Vertex 4 {m}

OS:Surface,
  {b2f62648-bbaf-4b6a-9d64-59b4f18e19d9}, !- Handle
  Surface 10,                             !- Name
  RoofCeiling,                            !- Surface Type
  ,                                       !- Construction Name
  {01b788bb-92d1-4e8b-9cab-5cc0b643a3ef}, !- Space Name
  Adiabatic,                              !- Outside Boundary Condition
  ,                                       !- Outside Boundary Condition Object
  NoSun,                                  !- Sun Exposure
  NoWind,                                 !- Wind Exposure
  ,                                       !- View Factor to Ground
  ,                                       !- Number of Vertices
  860.109420712048, 940.240405799821, 1.524, !- X,Y,Z Vertex 1 {m}
  860.341747519036, 932.740606189705, 1.524, !- X,Y,Z Vertex 2 {m}
  861.255428693024, 932.768909969367, 1.524, !- X,Y,Z Vertex 3 {m}
  861.363335274043, 929.285550449975, 1.524, !- X,Y,Z Vertex 4 {m}
  871.112805826997, 929.473247239366, 1.524, !- X,Y,Z Vertex 5 {m}
  871.034970431996, 931.985870479606, 1.524, !- X,Y,Z Vertex 6 {m}
  874.232854561997, 932.084933719598, 1.524, !- X,Y,Z Vertex 7 {m}
  874.122736623045, 940.560186969116, 1.524; !- X,Y,Z Vertex 8 {m}

OS:ThermalZone,
  {93fd8513-5f1c-409a-b704-ff6d7b203f8f}, !- Handle
  Bldg 142484 Floor 1 ThermalZone,        !- Name
  ,                                       !- Multiplier
  ,                                       !- Ceiling Height {m}
  ,                                       !- Volume {m3}
  ,                                       !- Floor Area {m2}
  ,                                       !- Zone Inside Convection Algorithm
  ,                                       !- Zone Outside Convection Algorithm
  ,                                       !- Zone Conditioning Equipment List Name
  {5ee00df9-a9fa-439e-8d5e-cc18272061ef}, !- Zone Air Inlet Port List
  {ffd967e0-34f3-4bae-bebb-81754861e9c8}, !- Zone Air Exhaust Port List
  {ed692de2-363a-4f2a-8853-f8e53ba6b43b}, !- Zone Air Node Name
  ,                                       !- Zone Return Air Node Name
  ,                                       !- Primary Daylighting Control Name
  ,                                       !- Fraction of Zone Controlled by Primary Daylighting Control
  ,                                       !- Secondary Daylighting Control Name
  ,                                       !- Fraction of Zone Controlled by Secondary Daylighting Control
  ,                                       !- Illuminance Map Name
  ,                                       !- Group Rendering Name
  ,                                       !- Thermostat Name
  No;                                     !- Use Ideal Air Loads

OS:Node,
  {1ee0f995-6184-4d2a-ac8b-37e82eff3825}, !- Handle
  Node 1,                                 !- Name
  {ed692de2-363a-4f2a-8853-f8e53ba6b43b}, !- Inlet Port
  ;                                       !- Outlet Port

OS:Connection,
  {ed692de2-363a-4f2a-8853-f8e53ba6b43b}, !- Handle
  {1f5ae94f-6320-4568-80a5-ea9cbc68beb3}, !- Name
  {93fd8513-5f1c-409a-b704-ff6d7b203f8f}, !- Source Object
  11,                                     !- Outlet Port
  {1ee0f995-6184-4d2a-ac8b-37e82eff3825}, !- Target Object
  2;                                      !- Inlet Port

OS:PortList,
  {5ee00df9-a9fa-439e-8d5e-cc18272061ef}, !- Handle
  Port List 1,                            !- Name
  {93fd8513-5f1c-409a-b704-ff6d7b203f8f}; !- HVAC Component

OS:PortList,
  {ffd967e0-34f3-4bae-bebb-81754861e9c8}, !- Handle
  Port List 2,                            !- Name
  {93fd8513-5f1c-409a-b704-ff6d7b203f8f}; !- HVAC Component

OS:Sizing:Zone,
  {c0a35523-a661-4c13-a6cf-cf6162d1f3ef}, !- Handle
  {93fd8513-5f1c-409a-b704-ff6d7b203f8f}, !- Zone or ZoneList Name
  14,                                     !- Zone Cooling Design Supply Air Temperature {C}
  40,                                     !- Zone Heating Design Supply Air Temperature {C}
  0.0085,                                 !- Zone Cooling Design Supply Air Humidity Ratio {kg-H2O/kg-air}
  0.008,                                  !- Zone Heating Design Supply Air Humidity Ratio {kg-H2O/kg-air}
  ,                                       !- Zone Heating Sizing Factor
  ,                                       !- Zone Cooling Sizing Factor
  DesignDay,                              !- Cooling Design Air Flow Method
  ,                                       !- Cooling Design Air Flow Rate {m3/s}
  ,                                       !- Cooling Minimum Air Flow per Zone Floor Area {m3/s-m2}
  ,                                       !- Cooling Minimum Air Flow {m3/s}
  ,                                       !- Cooling Minimum Air Flow Fraction
  DesignDay,                              !- Heating Design Air Flow Method
  ,                                       !- Heating Design Air Flow Rate {m3/s}
  ,                                       !- Heating Maximum Air Flow per Zone Floor Area {m3/s-m2}
  ,                                       !- Heating Maximum Air Flow {m3/s}
  ,                                       !- Heating Maximum Air Flow Fraction
  ,                                       !- Design Zone Air Distribution Effectiveness in Cooling Mode
  ;                                       !- Design Zone Air Distribution Effectiveness in Heating Mode

OS:ZoneHVAC:EquipmentList,
  {8d74d7eb-0252-4053-b274-24763c07ba26}, !- Handle
  Zone HVAC Equipment List 1,             !- Name
  {93fd8513-5f1c-409a-b704-ff6d7b203f8f}; !- Thermal Zone

OS:Space,
  {2629e0e6-6bf5-4f8e-b72f-bd6eabb82413}, !- Handle
  Bldg 142484 Floor 2,                    !- Name
  ,                                       !- Space Type Name
  ,                                       !- Default Construction Set Name
  ,                                       !- Default Schedule Set Name
  ,                                       !- Direction of Relative North {deg}
  ,                                       !- X Origin {m}
  ,                                       !- Y Origin {m}
  1.524,                                  !- Z Origin {m}
  ,                                       !- Building Story Name
  {78edf9fa-734b-4b73-b34b-3005d5559f51}; !- Thermal Zone Name

OS:Surface,
  {66160c02-0ce2-4094-a897-d6d4b28fa38c}, !- Handle
  Surface 11,                             !- Name
  Floor,                                  !- Surface Type
  ,                                       !- Construction Name
  {2629e0e6-6bf5-4f8e-b72f-bd6eabb82413}, !- Space Name
  Adiabatic,                              !- Outside Boundary Condition
  ,                                       !- Outside Boundary Condition Object
  NoSun,                                  !- Sun Exposure
  NoWind,                                 !- Wind Exposure
  ,                                       !- View Factor to Ground
  ,                                       !- Number of Vertices
  874.122736623045, 940.560186969116, 0,  !- X,Y,Z Vertex 1 {m}
  874.232854561997, 932.084933719598, 0,  !- X,Y,Z Vertex 2 {m}
  871.034970431996, 931.985870479606, 0,  !- X,Y,Z Vertex 3 {m}
  871.112805826997, 929.473247239366, 0,  !- X,Y,Z Vertex 4 {m}
  861.363335274043, 929.285550449975, 0,  !- X,Y,Z Vertex 5 {m}
  861.255428693024, 932.768909969367, 0,  !- X,Y,Z Vertex 6 {m}
  860.341747519036, 932.740606189705, 0,  !- X,Y,Z Vertex 7 {m}
  860.109420712048, 940.240405799821, 0;  !- X,Y,Z Vertex 8 {m}

OS:Surface,
  {0f9ad664-0127-4625-b417-7997148e7098}, !- Handle
  Surface 12,                             !- Name
  Wall,                                   !- Surface Type
  ,                                       !- Construction Name
  {2629e0e6-6bf5-4f8e-b72f-bd6eabb82413}, !- Space Name
  Outdoors,                               !- Outside Boundary Condition
  ,                                       !- Outside Boundary Condition Object
  SunExposed,                             !- Sun Exposure
  WindExposed,                            !- Wind Exposure
  ,                                       !- View Factor to Ground
  ,                                       !- Number of Vertices
  874.232854561997, 932.084933719598, 1.524, !- X,Y,Z Vertex 1 {m}
  874.232854561997, 932.084933719598, 0,  !- X,Y,Z Vertex 2 {m}
  874.122736623045, 940.560186969116, 0,  !- X,Y,Z Vertex 3 {m}
  874.122736623045, 940.560186969116, 1.524; !- X,Y,Z Vertex 4 {m}

OS:Surface,
  {24f065bf-f4c8-40a3-a9a6-661dc0e5d0a1}, !- Handle
  Surface 13,                             !- Name
  Wall,                                   !- Surface Type
  ,                                       !- Construction Name
  {2629e0e6-6bf5-4f8e-b72f-bd6eabb82413}, !- Space Name
  Outdoors,                               !- Outside Boundary Condition
  ,                                       !- Outside Boundary Condition Object
  SunExposed,                             !- Sun Exposure
  WindExposed,                            !- Wind Exposure
  ,                                       !- View Factor to Ground
  ,                                       !- Number of Vertices
  871.034970431996, 931.985870479606, 1.524, !- X,Y,Z Vertex 1 {m}
  871.034970431996, 931.985870479606, 0,  !- X,Y,Z Vertex 2 {m}
  874.232854561997, 932.084933719598, 0,  !- X,Y,Z Vertex 3 {m}
  874.232854561997, 932.084933719598, 1.524; !- X,Y,Z Vertex 4 {m}

OS:Surface,
  {9e625b89-0065-41f1-ba36-e46c55adb92e}, !- Handle
  Surface 14,                             !- Name
  Wall,                                   !- Surface Type
  ,                                       !- Construction Name
  {2629e0e6-6bf5-4f8e-b72f-bd6eabb82413}, !- Space Name
  Outdoors,                               !- Outside Boundary Condition
  ,                                       !- Outside Boundary Condition Object
  SunExposed,                             !- Sun Exposure
  WindExposed,                            !- Wind Exposure
  ,                                       !- View Factor to Ground
  ,                                       !- Number of Vertices
  871.112805826997, 929.473247239366, 1.524, !- X,Y,Z Vertex 1 {m}
  871.112805826997, 929.473247239366, 0,  !- X,Y,Z Vertex 2 {m}
  871.034970431996, 931.985870479606, 0,  !- X,Y,Z Vertex 3 {m}
  871.034970431996, 931.985870479606, 1.524; !- X,Y,Z Vertex 4 {m}

OS:Surface,
  {3c8e6a76-6878-4840-bdab-63f630047000}, !- Handle
  Surface 15,                             !- Name
  Wall,                                   !- Surface Type
  ,                                       !- Construction Name
  {2629e0e6-6bf5-4f8e-b72f-bd6eabb82413}, !- Space Name
  Outdoors,                               !- Outside Boundary Condition
  ,                                       !- Outside Boundary Condition Object
  SunExposed,                             !- Sun Exposure
  WindExposed,                            !- Wind Exposure
  ,                                       !- View Factor to Ground
  ,                                       !- Number of Vertices
  861.363335274043, 929.285550449975, 1.524, !- X,Y,Z Vertex 1 {m}
  861.363335274043, 929.285550449975, 0,  !- X,Y,Z Vertex 2 {m}
  871.112805826997, 929.473247239366, 0,  !- X,Y,Z Vertex 3 {m}
  871.112805826997, 929.473247239366, 1.524; !- X,Y,Z Vertex 4 {m}

OS:Surface,
  {8c2a4254-818f-4341-9d41-135c0b007948}, !- Handle
  Surface 16,                             !- Name
  Wall,                                   !- Surface Type
  ,                                       !- Construction Name
  {2629e0e6-6bf5-4f8e-b72f-bd6eabb82413}, !- Space Name
  Outdoors,                               !- Outside Boundary Condition
  ,                                       !- Outside Boundary Condition Object
  SunExposed,                             !- Sun Exposure
  WindExposed,                            !- Wind Exposure
  ,                                       !- View Factor to Ground
  ,                                       !- Number of Vertices
  861.255428693024, 932.768909969367, 1.524, !- X,Y,Z Vertex 1 {m}
  861.255428693024, 932.768909969367, 0,  !- X,Y,Z Vertex 2 {m}
  861.363335274043, 929.285550449975, 0,  !- X,Y,Z Vertex 3 {m}
  861.363335274043, 929.285550449975, 1.524; !- X,Y,Z Vertex 4 {m}

OS:Surface,
  {1b8afdd6-eed9-4ef5-8807-cdfb2914e8fa}, !- Handle
  Surface 17,                             !- Name
  Wall,                                   !- Surface Type
  ,                                       !- Construction Name
  {2629e0e6-6bf5-4f8e-b72f-bd6eabb82413}, !- Space Name
  Outdoors,                               !- Outside Boundary Condition
  ,                                       !- Outside Boundary Condition Object
  SunExposed,                             !- Sun Exposure
  WindExposed,                            !- Wind Exposure
  ,                                       !- View Factor to Ground
  ,                                       !- Number of Vertices
  860.341747519036, 932.740606189705, 1.524, !- X,Y,Z Vertex 1 {m}
  860.341747519036, 932.740606189705, 0,  !- X,Y,Z Vertex 2 {m}
  861.255428693024, 932.768909969367, 0,  !- X,Y,Z Vertex 3 {m}
  861.255428693024, 932.768909969367, 1.524; !- X,Y,Z Vertex 4 {m}

OS:Surface,
  {9daaf03d-546a-46b2-a528-eff17f56ffb4}, !- Handle
  Surface 18,                             !- Name
  Wall,                                   !- Surface Type
  ,                                       !- Construction Name
  {2629e0e6-6bf5-4f8e-b72f-bd6eabb82413}, !- Space Name
  Outdoors,                               !- Outside Boundary Condition
  ,                                       !- Outside Boundary Condition Object
  SunExposed,                             !- Sun Exposure
  WindExposed,                            !- Wind Exposure
  ,                                       !- View Factor to Ground
  ,                                       !- Number of Vertices
  860.109420712048, 940.240405799821, 1.524, !- X,Y,Z Vertex 1 {m}
  860.109420712048, 940.240405799821, 0,  !- X,Y,Z Vertex 2 {m}
  860.341747519036, 932.740606189705, 0,  !- X,Y,Z Vertex 3 {m}
  860.341747519036, 932.740606189705, 1.524; !- X,Y,Z Vertex 4 {m}

OS:Surface,
  {5bfd6d08-6f71-4686-b4a0-bcc29a33fee7}, !- Handle
  Surface 19,                             !- Name
  Wall,                                   !- Surface Type
  ,                                       !- Construction Name
  {2629e0e6-6bf5-4f8e-b72f-bd6eabb82413}, !- Space Name
  Outdoors,                               !- Outside Boundary Condition
  ,                                       !- Outside Boundary Condition Object
  SunExposed,                             !- Sun Exposure
  WindExposed,                            !- Wind Exposure
  ,                                       !- View Factor to Ground
  ,                                       !- Number of Vertices
  874.122736623045, 940.560186969116, 1.524, !- X,Y,Z Vertex 1 {m}
  874.122736623045, 940.560186969116, 0,  !- X,Y,Z Vertex 2 {m}
  860.109420712048, 940.240405799821, 0,  !- X,Y,Z Vertex 3 {m}
  860.109420712048, 940.240405799821, 1.524; !- X,Y,Z Vertex 4 {m}

OS:Surface,
  {21917eeb-a274-498c-8138-9c3b9ec31932}, !- Handle
  Surface 20,                             !- Name
  RoofCeiling,                            !- Surface Type
  ,                                       !- Construction Name
  {2629e0e6-6bf5-4f8e-b72f-bd6eabb82413}, !- Space Name
  Adiabatic,                              !- Outside Boundary Condition
  ,                                       !- Outside Boundary Condition Object
  NoSun,                                  !- Sun Exposure
  NoWind,                                 !- Wind Exposure
  ,                                       !- View Factor to Ground
  ,                                       !- Number of Vertices
  860.109420712048, 940.240405799821, 1.524, !- X,Y,Z Vertex 1 {m}
  860.341747519036, 932.740606189705, 1.524, !- X,Y,Z Vertex 2 {m}
  861.255428693024, 932.768909969367, 1.524, !- X,Y,Z Vertex 3 {m}
  861.363335274043, 929.285550449975, 1.524, !- X,Y,Z Vertex 4 {m}
  871.112805826997, 929.473247239366, 1.524, !- X,Y,Z Vertex 5 {m}
  871.034970431996, 931.985870479606, 1.524, !- X,Y,Z Vertex 6 {m}
  874.232854561997, 932.084933719598, 1.524, !- X,Y,Z Vertex 7 {m}
  874.122736623045, 940.560186969116, 1.524; !- X,Y,Z Vertex 8 {m}

OS:ThermalZone,
  {78edf9fa-734b-4b73-b34b-3005d5559f51}, !- Handle
  Bldg 142484 Floor 2 ThermalZone,        !- Name
  ,                                       !- Multiplier
  ,                                       !- Ceiling Height {m}
  ,                                       !- Volume {m3}
  ,                                       !- Floor Area {m2}
  ,                                       !- Zone Inside Convection Algorithm
  ,                                       !- Zone Outside Convection Algorithm
  ,                                       !- Zone Conditioning Equipment List Name
  {cdd304e7-5470-4744-9df9-7d023f31de9c}, !- Zone Air Inlet Port List
  {f9f8b9be-2829-42cd-b66b-d9071fd25648}, !- Zone Air Exhaust Port List
  {8c19ef04-b916-47b0-9d3e-61b6c277b185}, !- Zone Air Node Name
  ,                                       !- Zone Return Air Node Name
  ,                                       !- Primary Daylighting Control Name
  ,                                       !- Fraction of Zone Controlled by Primary Daylighting Control
  ,                                       !- Secondary Daylighting Control Name
  ,                                       !- Fraction of Zone Controlled by Secondary Daylighting Control
  ,                                       !- Illuminance Map Name
  ,                                       !- Group Rendering Name
  ,                                       !- Thermostat Name
  No;                                     !- Use Ideal Air Loads

OS:Node,
  {dd88f9bd-6ffe-4ee2-86b3-1bb509e8ffa1}, !- Handle
  Node 2,                                 !- Name
  {8c19ef04-b916-47b0-9d3e-61b6c277b185}, !- Inlet Port
  ;                                       !- Outlet Port

OS:Connection,
  {8c19ef04-b916-47b0-9d3e-61b6c277b185}, !- Handle
  {6d185158-b3bb-481c-a6e9-a1d80ccf2ac4}, !- Name
  {78edf9fa-734b-4b73-b34b-3005d5559f51}, !- Source Object
  11,                                     !- Outlet Port
  {dd88f9bd-6ffe-4ee2-86b3-1bb509e8ffa1}, !- Target Object
  2;                                      !- Inlet Port

OS:PortList,
  {cdd304e7-5470-4744-9df9-7d023f31de9c}, !- Handle
  Port List 3,                            !- Name
  {78edf9fa-734b-4b73-b34b-3005d5559f51}; !- HVAC Component

OS:PortList,
  {f9f8b9be-2829-42cd-b66b-d9071fd25648}, !- Handle
  Port List 4,                            !- Name
  {78edf9fa-734b-4b73-b34b-3005d5559f51}; !- HVAC Component

OS:Sizing:Zone,
  {91118a74-7df1-4a1a-96a3-56004a98e6a8}, !- Handle
  {78edf9fa-734b-4b73-b34b-3005d5559f51}, !- Zone or ZoneList Name
  14,                                     !- Zone Cooling Design Supply Air Temperature {C}
  40,                                     !- Zone Heating Design Supply Air Temperature {C}
  0.0085,                                 !- Zone Cooling Design Supply Air Humidity Ratio {kg-H2O/kg-air}
  0.008,                                  !- Zone Heating Design Supply Air Humidity Ratio {kg-H2O/kg-air}
  ,                                       !- Zone Heating Sizing Factor
  ,                                       !- Zone Cooling Sizing Factor
  DesignDay,                              !- Cooling Design Air Flow Method
  ,                                       !- Cooling Design Air Flow Rate {m3/s}
  ,                                       !- Cooling Minimum Air Flow per Zone Floor Area {m3/s-m2}
  ,                                       !- Cooling Minimum Air Flow {m3/s}
  ,                                       !- Cooling Minimum Air Flow Fraction
  DesignDay,                              !- Heating Design Air Flow Method
  ,                                       !- Heating Design Air Flow Rate {m3/s}
  ,                                       !- Heating Maximum Air Flow per Zone Floor Area {m3/s-m2}
  ,                                       !- Heating Maximum Air Flow {m3/s}
  ,                                       !- Heating Maximum Air Flow Fraction
  ,                                       !- Design Zone Air Distribution Effectiveness in Cooling Mode