
OS:Version,
  {63f83bdf-5dfe-4e18-ae82-dca76632d2da}, !- Handle
  1.10.6;                                 !- Version Identifier
