
OS:Version,
  {63f83bdf-5dfe-4e18-ae82-dca76632d2da}, !- Handle
  1.12.0;                                 !- Version Identifier

OS:Site,
  {e77b4694-5891-4b3a-b1bd-e0930e5f92a6}, !- Handle
  Site 1,                                 !- Name
  ,                                       !- Latitude {deg}
  ,                                       !- Longitude {deg}
  ,                                       !- Time Zone {hr}
  ,                                       !- Elevation {m}
  ;                                       !- Terrain

OS:YearDescription,
  {4fdfb0d8-6890-4ae4-a0f5-1137c1ca3aa4}; !- Handle

OS:ClimateZones,
  {a7014cec-c6a9-4dec-babd-44eb6dac0bf6}, !- Handle
  ,                                       !- Active Institution
  ,                                       !- Active Year
  ASHRAE,                                 !- Climate Zone Institution Name 1
  ANSI/ASHRAE Standard 169,               !- Climate Zone Document Name 1
  2006,                                   !- Climate Zone Document Year 1
  ,                                       !- Climate Zone Value 1
  CEC,                                    !- Climate Zone Institution Name 2
  California Climate Zone Descriptions,   !- Climate Zone Document Name 2
  1995,                                   !- Climate Zone Document Year 2
  ;                                       !- Climate Zone Value 2

OS:Building,
  {604f3bce-fa81-4cc9-9acd-18c2269bdc94}, !- Handle
  Building 1,                             !- Name
  ,                                       !- Building Sector Type
  ,                                       !- North Axis {deg}
  ,                                       !- Nominal Floor to Floor Height {m}
  ,                                       !- Space Type Name
  ,                                       !- Default Construction Set Name
  ;                                       !- Default Schedule Set Name

OS:Facility,
  {f19e80a0-f03a-49f2-a122-f12ab5ca0c8b}; !- Handle

OS:SimulationControl,
  {3bfe3f54-5dfa-4997-8dc1-42ecd199daaf}; !- Handle

OS:Sizing:Parameters,
  {98bb150c-2281-4934-8f7b-6e19ff08e18a}, !- Handle
  1.25,                                   !- Heating Sizing Factor
  1.15;                                   !- Cooling Sizing Factor

OS:Timestep,
  {307a0e13-f821-402e-8abf-243fa086bc14}, !- Handle
  6;                                      !- Number of Timesteps per Hour

OS:ShadowCalculation,
  {45fb6fb7-d4d7-4104-a335-e2f875ac27b2}, !- Handle
  20,                                     !- Calculation Frequency
  15000;                                  !- Maximum Figures in Shadow Overlap Calculations

OS:HeatBalanceAlgorithm,
  {535438ec-7b4b-43e7-afcc-3e7d0d6f98c0}, !- Handle
  ConductionTransferFunction,             !- Algorithm
  200;                                    !- Surface Temperature Upper Limit {C}

OS:RunPeriod,
  {5e0c1350-c8cd-4209-8e4b-e509ef5c9c87}, !- Handle
  Run Period 1,                           !- Name
  1,                                      !- Begin Month
  1,                                      !- Begin Day of Month
  12,                                     !- End Month
  31,                                     !- End Day of Month
  ,                                       !- Use Weather File Holidays and Special Days
  ,                                       !- Use Weather File Daylight Saving Period
  ,                                       !- Apply Weekend Holiday Rule
  ,                                       !- Use Weather File Rain Indicators
  ,                                       !- Use Weather File Snow Indicators
  ;                                       !- Number of Times Runperiod to be Repeated

OS:LifeCycleCost:Parameters,
  {4f20ed1d-dfb4-481d-83dd-0ae9505c54fc}, !- Handle
  ,                                       !- Analysis Type
  ,                                       !- Discounting Convention
  ,                                       !- Inflation Approach
  ,                                       !- Real Discount Rate
  ,                                       !- Nominal Discount Rate
  ,                                       !- Inflation
  ,                                       !- Base Date Month
  ,                                       !- Base Date Year
  ,                                       !- Service Date Month
  ,                                       !- Service Date Year
  ;                                       !- Length of Study Period in Years

