
Version,
  8.1.0.009;                              !- Version Identifier

UtilityCost:Tariff,
  sce_res_tou,                            !- Name
  ElectricityPurchased:Facility,          !- Output Meter Name
  kWh,                                    !- Conversion Factor Choice
  ,                                       !- Energy Conversion Factor
  ,                                       !- Demand Conversion Factor
  TimeOfDaySchedule,                      !- Time of Use Period Schedule Name
  TwoSeasonSchedule,                      !- Season Schedule Name
  ,                                       !- Month Schedule Name
  QuarterHour,                            !- Demand Window Length
  33.5736;                                !- Monthly Charge or Variable Name

UtilityCost:Charge:Simple,
  CommercialSummerOnPeakEnergyCharge,     !- Name
  sce_res_tou,                            !- Name
  peakEnergy,                             !- Source Variable
  summer,                                 !- Season
  EnergyCharges,                          !- Category Variable Name
  0.47837;                                !- Cost per Unit Value or Variable Name

UtilityCost:Charge:Simple,
  CommercialSummeMidPeakEnergyCharge,     !- Name
  sce_res_tou,                            !- Name
  midPeakEnergy,                          !- Source Variable
  summer,                                 !- Season
  EnergyCharges,                          !- Category Variable Name
  0.27554;                                !- Cost per Unit Value or Variable Name

UtilityCost:Charge:Simple,
  CommercialSummerOffPeakEnergyCharge,    !- Name
  sce_res_tou,                            !- Name
  offPeakEnergy,                          !- Source Variable
  summer,                                 !- Season
  EnergyCharges,                          !- Category Variable Name
  0.12315;                                !- Cost per Unit Value or Variable Name

UtilityCost:Charge:Simple,
  CommercialWinterOnPeakEnergyCharge,     !- Name
  sce_res_tou,                            !- Name
  peakEnergy,                             !- Source Variable
  winter,                                 !- Season
  EnergyCharges,                          !- Category Variable Name
  0.3558;                                 !- Cost per Unit Value or Variable Name

UtilityCost:Charge:Simple,
  CommercialWinterMidPeakEnergyCharge,    !- Name
  sce_res_tou,                            !- Name
  midPeakEnergy,                          !- Source Variable
  winter,                                 !- Season
  EnergyCharges,                          !- Category Variable Name
  0.2698;                                 !- Cost per Unit Value or Variable Name

UtilityCost:Charge:Simple,
  CommercialWinterOffPeakEnergyCharge,    !- Name
  sce_res_tou,                            !- Name
  offPeakEnergy,                          !- Source Variable
  winter,                                 !- Season
  EnergyCharges,                          !- Category Variable Name
  0.12742;                                !- Cost per Unit Value or Variable Name

Schedule:Compact,
  TwoSeasonSchedule,                      !- Name
  number,                                 !- Schedule Type Limits Name
  Through: 5/31,                          !- Field 1
  For: AllDays,                           !- Field 2
  Until: 24:00,                           !- Field 3
  1,                                      !- Field 4
  Through: 9/30,                          !- Field 5
  For: AllDays,                           !- Field 6
  Until: 24:00,                           !- Field 7
  3,                                      !- Field 8
  Through: 12/31,                         !- Field 9
  For: AllDays,                           !- Field 10
  Until: 24:00,                           !- Field 11
  1;                                      !- Field 12

Schedule:Compact,
  TimeOfDaySchedule,                      !- Name
  number,                                 !- Schedule Type Limits Name
  Through: 12/31,                         !- Field 1        
  For: Weekdays,                          !- weekday sched
  Until: 8:00,                            !- 0:00-8:00
  4,                                      !- mid-peak (4)
  Until: 14:00,                           !- 8:00-2pm
  3,                                      !- off-peak (3)
  Until: 20:00,                           !- 2pm-8pm
  1,                                      !- on-peak (1)
  Until: 24:00,                           !- 6-midnight
  4,                                      !- mid-peak (4)
  For: AllOtherDays,                      !- weekends
  Until: 8:00,                            !- 0:00-8:00
  4,                                      !- mid peak
  Until: 20:00,                           !- 8am-10pm
  3,                                      !- off-peak (3)
  Until: 24:00,                           !- 10pm-midnight
  4;                                      !- mid-peak




